Program Version,EnergyPlus, Version 22.2.0-c249759bad, YMD=2024.04.02 07:27,
   ** Severe  ** <root>[BuildingSurface:Detailed][Block North Storey 0 Floor 0001] - Missing required property 'construction_name'.
   ** Severe  ** <root>[BuildingSurface:Detailed][Block North Storey 0 Floor 0001] - Missing required property 'outside_boundary_condition'.
   **  Fatal  ** Errors occurred on processing input file. Preceding condition(s) cause termination.
   ...Summary of Errors that led to program termination:
   ..... Reference severe error count=2
   ..... Last severe error=<root>[BuildingSurface:Detailed][Block North Storey 0 Floor 0001] - Missing required property 'outside_boundary_condition'.
   ************* Warning:  Node connection errors not checked - most system input has not been read (see previous warning).
   ************* Fatal error -- final processing.  Program exited before simulations began.  See previous error messages.
   ************* EnergyPlus Warmup Error Summary. During Warmup: 0 Warning; 0 Severe Errors.
   ************* EnergyPlus Sizing Error Summary. During Sizing: 0 Warning; 0 Severe Errors.
   ************* EnergyPlus Terminated--Fatal Error Detected. 0 Warning; 2 Severe Errors; Elapsed Time=00hr 00min  0.06sec
