Program Version,EnergyPlus, Version 22.2.0-c249759bad, YMD=2025.12.15 13:44
